<?xml version="1.0" encoding="UTF-8"?>
<routes>
	<vType accel="3.0" decel="6.0" id="CarA" length="5.0" minGap="2.5" maxSpeed="50.0" sigma="0.5" />
	<route id="route01" edges="edge1 edge2"/>
	<vehicle depart="0" id="veh0" route="route01" type="CarA" color="1,0,0" />
</routes>
